$ Direct Text Input for Bulk Data
$
$ Nodes of the Entire Model
GRID,1,,0,1,0
GRID,2,,0,0.75,0
GRID,3,,0,0.5,0
GRID,4,,0,0.25,0
GRID,5,,0,0,0
GRID,6,,0,0,0.25
GRID,7,,0,0,0.5
GRID,8,,0,0,0.75
GRID,9,,0,0,1
GRID,10,,0.25,1,0
GRID,11,,0.25,0.75,0
GRID,12,,0.25,0.5,0
GRID,13,,0.25,0.25,0
GRID,14,,0.25,0,0
GRID,15,,0.25,0,0.25
GRID,16,,0.25,0,0.5
GRID,17,,0.25,0,0.75
GRID,18,,0.25,0,1
GRID,19,,0.5,1,0
GRID,20,,0.5,0.75,0
$ ... 349 like lines cut
$
$
$ Face
$
$
CQUAD4,1,1,1,2,11,10
CQUAD4,2,1,2,3,12,11
CQUAD4,3,1,3,4,13,12
CQUAD4,4,1,4,5,14,13
CQUAD4,5,1,5,6,15,14
CQUAD4,6,1,6,7,16,15
CQUAD4,7,1,7,8,17,16
CQUAD4,8,1,8,9,18,17
CQUAD4,9,1,10,11,20,19
CQUAD4,10,1,11,12,21,20
CQUAD4,11,1,12,13,22,21
CQUAD4,12,1,13,14,23,22
CQUAD4,13,1,14,15,24,23
CQUAD4,14,1,15,16,25,24
CQUAD4,15,1,16,17,26,25
CQUAD4,16,1,17,18,27,26
CQUAD4,17,1,19,20,29,28
CQUAD4,18,1,20,21,30,29
CQUAD4,19,1,21,22,31,30
CQUAD4,20,1,22,23,32,31
$ ... 300 like lines cut
$ Material : Material1
MAT1    1       69000000000  27000000000  .3      2700                        
$ Property : Property1
PSHELL  1       1       0.1.     1               1 
$ Imposed Displacement
SPC1,1,123456,1
SPC1,1,123456,2
SPC1,1,123456,3
SPC1,1,123456,4
SPC1,1,123456,5
SPC1,1,123456,6
SPC1,1,123456,7
SPC1,1,123456,8
SPC1,1,123456,9
$ FORCE
FORCE,1,361,,-10,0,0,1
FORCE,1,362,,-10,0,0,1
FORCE,1,363,,-10,0,0,1
FORCE,1,364,,-10,0,0,1
FORCE,1,365,,-10,0,0,1
FORCE,1,366,,-10,0,0,1
FORCE,1,367,,-10,0,0,1
FORCE,1,368,,-10,0,0,1
FORCE,1,369,,-10,0,0,1
$
EIGRL   30                      10
